Version 4.1
SHEET 1 880 748
WIRE -880 208 -880 192
WIRE -880 240 -880 208
WIRE -784 240 -784 224
WIRE -384 240 -384 224
WIRE -880 336 -880 320
WIRE -784 336 -784 320
WIRE -384 336 -384 320
WIRE -864 448 -960 448
WIRE -144 448 -864 448
WIRE -144 496 -144 448
WIRE 128 512 32 512
WIRE 208 512 128 512
WIRE 368 512 352 512
WIRE -864 528 -864 448
WIRE -768 528 -864 528
WIRE -560 528 -624 528
WIRE -368 528 -416 528
WIRE -144 528 -224 528
WIRE 128 688 128 512
WIRE 368 688 128 688
FLAG -384 336 0
FLAG -384 224 C
FLAG -784 336 0
FLAG -784 224 D
FLAG -880 336 0
FLAG -880 208 VDD
FLAG -80 576 0
FLAG 272 560 0
FLAG -304 576 0
FLAG -496 576 0
FLAG -704 576 0
FLAG -704 480 VDD
FLAG -496 480 VDD
FLAG -304 480 VDD
FLAG -80 448 VDD
FLAG 272 464 VDD
FLAG -960 448 C
FLAG 368 512 Cp
FLAG 368 688 Cpbar
SYMBOL voltage -384 224 R0
WINDOW 123 0 0 Left 0
WINDOW 39 0 0 Left 0
SYMATTR InstName V1
SYMATTR Value PULSE(1.2 0 0.1n 1p 1p 1n 2n )
SYMBOL voltage -784 224 R0
WINDOW 123 0 0 Left 0
WINDOW 39 0 0 Left 0
SYMATTR InstName V2
SYMATTR Value PULSE(0 1.2 500p 1p 1p 3n 6n)
SYMBOL voltage -880 224 R0
WINDOW 123 0 0 Left 2
WINDOW 39 0 0 Left 2
SYMATTR InstName VDD1
SYMATTR Value 1.2
SYMBOL Nand2 -80 512 R0
SYMATTR InstName X1
SYMBOL Inverter1 272 512 R0
SYMATTR InstName X2
SYMBOL Inverter3 -704 528 R0
SYMATTR InstName X3
SYMBOL Inverter3 -496 528 R0
SYMATTR InstName X4
SYMBOL Inverter3 -304 528 R0
SYMATTR InstName X5
TEXT -264 240 Left 2 !.lib 130nm_bulk.lib
TEXT -184 264 Left 2 !.tran 50n
