Version 4.1
SHEET 1 1376 680
WIRE 176 -320 176 -336
WIRE 176 -288 176 -320
WIRE 272 -288 272 -304
WIRE 672 -288 672 -304
WIRE -336 -192 -400 -192
WIRE -112 -192 -192 -192
WIRE 176 -192 176 -208
WIRE 272 -192 272 -208
WIRE 672 -192 672 -208
WIRE -112 -112 -112 -192
WIRE -176 -48 -544 -48
WIRE -16 -48 -48 -48
WIRE 384 -48 304 -48
WIRE 416 -48 384 -48
WIRE 512 -48 416 -48
WIRE -16 32 -16 -48
WIRE 208 32 -16 32
WIRE 256 32 208 32
WIRE 416 48 304 48
WIRE 512 48 416 48
WIRE -400 96 -400 -192
WIRE -400 96 -544 96
WIRE -240 96 -400 96
WIRE -112 96 -112 16
WIRE -112 96 -240 96
WIRE 368 96 368 32
WIRE 368 96 -112 96
WIRE 512 112 512 48
WIRE 752 112 512 112
WIRE 928 112 896 112
WIRE 1104 112 1072 112
WIRE 1264 112 1248 112
WIRE 1328 112 1264 112
WIRE 464 128 464 32
WIRE 464 128 400 128
WIRE 816 160 800 160
WIRE 1184 160 1168 160
WIRE 512 176 512 112
WIRE 368 256 368 96
WIRE 464 256 368 256
WIRE 208 352 208 32
WIRE 464 352 208 352
WIRE -240 416 -240 96
WIRE -112 416 -240 416
WIRE -64 448 -64 432
WIRE 400 448 400 128
WIRE 400 448 -64 448
WIRE 464 448 400 448
WIRE -64 464 -64 448
WIRE 512 480 512 464
WIRE 1264 544 1264 112
WIRE 1264 544 -16 544
FLAG -64 560 0
FLAG -64 512 0
FLAG 800 160 0
FLAG 992 160 0
FLAG 1184 160 0
FLAG -144 -80 0
FLAG -272 -144 0
FLAG 304 0 VDD
FLAG 416 0 VDD
FLAG 512 0 VDD
FLAG 816 64 VDD
FLAG 992 64 VDD
FLAG 1168 64 VDD
FLAG -144 -16 VDD
FLAG -64 336 VDD
FLAG -64 384 VDD
FLAG -272 -240 VDD
FLAG 384 -48 VDD
FLAG 512 224 0
FLAG 512 320 0
FLAG 512 416 0
FLAG 512 480 0
FLAG 672 -192 0
FLAG 672 -304 C
FLAG 272 -192 0
FLAG 272 -304 D
FLAG 176 -192 0
FLAG 176 -320 VDD
FLAG -544 -48 D
FLAG -544 96 C
FLAG 1328 112 Cq
SYMBOL Inverter1 816 112 R0
SYMATTR InstName X2
SYMBOL Inverter1 992 112 R0
SYMATTR InstName X3
SYMBOL Inverter1 1168 112 R0
SYMATTR InstName X4
SYMBOL pmos4 -112 336 R0
WINDOW 0 88 9 Right 2
WINDOW 3 168 20 Right 2
WINDOW 123 206 76 Right 2
SYMATTR InstName M1
SYMATTR Value pch
SYMATTR Value2 l=130n w=780n
SYMBOL nmos4 -16 464 M0
WINDOW 0 104 24 Right 2
WINDOW 3 179 41 Right 2
WINDOW 123 213 74 Right 2
SYMATTR InstName M2
SYMATTR Value nch
SYMATTR Value2 l=130n w=260n
SYMBOL TG -112 -48 M180
SYMATTR InstName X5
SYMBOL Inverter2 -272 -192 R0
SYMATTR InstName X6
SYMBOL pmos4 256 -48 R0
WINDOW 0 88 9 Right 2
WINDOW 3 168 20 Right 2
WINDOW 123 206 76 Right 2
SYMATTR InstName M3
SYMATTR Value pch
SYMATTR Value2 l=130n w=780n
SYMBOL pmos4 368 -48 R0
WINDOW 0 88 9 Right 2
WINDOW 3 168 20 Right 2
WINDOW 123 206 76 Right 2
SYMATTR InstName M4
SYMATTR Value pch
SYMATTR Value2 l=130n w=780n
SYMBOL pmos4 464 -48 R0
WINDOW 0 88 9 Right 2
WINDOW 3 168 20 Right 2
WINDOW 123 206 76 Right 2
SYMATTR InstName M5
SYMATTR Value pch
SYMATTR Value2 l=130n w=780n
SYMBOL nmos4 464 176 R0
WINDOW 0 104 24 Right 2
WINDOW 3 179 41 Right 2
WINDOW 123 213 74 Right 2
SYMATTR InstName M6
SYMATTR Value nch
SYMATTR Value2 l=130n w=260n
SYMBOL nmos4 464 272 R0
WINDOW 0 104 24 Right 2
WINDOW 3 179 41 Right 2
WINDOW 123 213 74 Right 2
SYMATTR InstName M7
SYMATTR Value nch
SYMATTR Value2 l=130n w=260n
SYMBOL nmos4 464 368 R0
WINDOW 0 104 24 Right 2
WINDOW 3 179 41 Right 2
WINDOW 123 213 74 Right 2
SYMATTR InstName M8
SYMATTR Value nch
SYMATTR Value2 l=130n w=260n
SYMBOL voltage 672 -304 R0
WINDOW 123 0 0 Left 0
WINDOW 39 0 0 Left 0
SYMATTR InstName V1
SYMATTR Value PULSE(1.2 0 0.1n 1p 1p 1n 2n )
SYMBOL voltage 272 -304 R0
WINDOW 123 0 0 Left 0
WINDOW 39 0 0 Left 0
SYMATTR InstName V2
SYMATTR Value PULSE(0 1.2 1n 1p 1p 500p 2n)
SYMBOL voltage 176 -304 R0
WINDOW 123 0 0 Left 2
WINDOW 39 0 0 Left 2
SYMATTR InstName VDD1
SYMATTR Value 1.2
TEXT 792 -288 Left 2 !.lib 130nm_bulk.lib
TEXT 872 -264 Left 2 !.tran 50n
