Version 4.1
SHEET 1 1308 784
WIRE 400 -272 368 -272
WIRE 560 -272 544 -272
WIRE -176 -240 -176 -256
WIRE 368 -240 368 -272
WIRE -176 -224 -176 -240
WIRE -64 -224 -64 -240
WIRE 368 -208 368 -240
WIRE 464 -208 464 -224
WIRE -176 -112 -176 -144
WIRE -64 -112 -64 -144
WIRE 368 -112 368 -160
WIRE 736 -16 672 -16
WIRE 1248 -16 880 -16
WIRE 1280 -16 1248 -16
WIRE 800 32 784 32
WIRE 0 112 -16 112
WIRE 528 112 512 112
WIRE -48 144 -64 144
WIRE 480 144 464 144
WIRE -304 176 -368 176
WIRE -80 176 -160 176
WIRE 128 176 48 176
WIRE 176 176 128 176
WIRE 384 176 320 176
WIRE 448 176 384 176
WIRE 672 176 672 -16
WIRE 672 176 576 176
WIRE 736 176 672 176
WIRE 960 176 880 176
WIRE 1024 176 960 176
WIRE 1264 176 1168 176
WIRE 1280 176 1264 176
WIRE -48 208 -64 208
WIRE 480 208 464 208
WIRE 240 224 224 224
WIRE 800 224 784 224
WIRE 1088 224 1072 224
WIRE 0 240 -16 240
WIRE 528 240 512 240
WIRE 128 384 128 176
WIRE 160 384 128 384
WIRE 384 384 384 176
WIRE 384 384 304 384
WIRE 672 384 672 176
WIRE 720 384 672 384
WIRE 960 384 960 176
WIRE 960 384 864 384
WIRE 256 432 240 432
WIRE 816 432 800 432
FLAG 1248 -16 Qbar
FLAG 1264 176 Q
FLAG -64 -112 0
FLAG -64 -240 D
FLAG 368 -112 0
FLAG 368 -208 C
FLAG 560 -272 Cbar
FLAG -240 224 0
FLAG 224 224 0
FLAG 256 432 0
FLAG 784 224 0
FLAG 1072 224 0
FLAG 784 32 0
FLAG 816 432 0
FLAG -176 -112 0
FLAG -176 -240 VDD
FLAG -240 128 VDD
FLAG 240 128 VDD
FLAG 240 336 VDD
FLAG 1088 128 VDD
FLAG 800 -64 VDD
FLAG 800 128 VDD
FLAG 800 336 VDD
FLAG -368 176 D
FLAG 0 112 C
FLAG 464 -208 0
FLAG 464 -320 VDD
FLAG -64 144 VDD
FLAG 0 240 Cbar
FLAG -64 208 0
FLAG 464 208 VDD
FLAG 528 112 C
FLAG 528 240 Cbar
FLAG 464 144 0
SYMBOL Inverter1 -240 176 R0
SYMATTR InstName X1
SYMBOL Inverter1 240 176 R0
SYMATTR InstName X2
SYMBOL Inverter1 800 176 R0
SYMATTR InstName X3
SYMBOL Inverter1 800 -16 R0
SYMATTR InstName X4
SYMBOL Inverter1 1088 176 R0
SYMATTR InstName X5
SYMBOL voltage 368 -256 R0
WINDOW 123 0 0 Left 0
WINDOW 39 0 0 Left 0
SYMATTR InstName V2
SYMATTR Value PULSE(1.2 0 0.1n 1p 1p  2n  4n )
SYMBOL voltage -64 -240 R0
WINDOW 123 0 0 Left 0
WINDOW 39 0 0 Left 0
SYMATTR InstName V3
SYMATTR Value PULSE(0 1.2 50p 1p 1p 8n 16n)
SYMBOL voltage -176 -240 R0
WINDOW 123 0 0 Left 2
WINDOW 39 0 0 Left 2
SYMATTR InstName VDD1
SYMATTR Value 1.2
SYMBOL Inverter2 240 384 M0
SYMATTR InstName X10
SYMBOL Inverter2 800 384 M0
SYMATTR InstName X11
SYMBOL Inverter1 464 -272 R0
SYMATTR InstName X6
SYMBOL TG -16 176 R0
SYMATTR InstName X7
SYMBOL TG 512 176 M180
SYMATTR InstName X8
TEXT -184 0 Left 2 !.lib 130nm_bulk.lib
TEXT -184 24 Left 2 !.tran 100n
TEXT 120 144 Left 2 ;X
