Version 4.1
SHEET 1 888 680
WIRE -128 -160 -128 -176
WIRE 32 -160 32 -176
WIRE 448 -160 448 -176
WIRE 208 32 112 32
WIRE 304 32 208 32
WIRE 112 48 112 32
WIRE 304 48 304 32
WIRE 32 64 -112 64
WIRE 64 64 32 64
WIRE 448 112 416 112
WIRE 304 144 112 144
WIRE 384 144 304 144
WIRE 560 144 464 144
WIRE 464 176 416 176
WIRE 304 192 304 144
WIRE 32 272 32 64
WIRE 256 272 32 272
WIRE 256 368 -128 368
WIRE 112 432 112 384
WIRE 32 464 32 272
WIRE 80 464 32 464
WIRE 256 464 160 464
WIRE 144 496 112 496
FLAG -128 -80 0
FLAG 32 -80 0
FLAG -128 -176 VDD
FLAG 32 -176 CLK
FLAG 448 -80 0
FLAG 448 -176 EN
FLAG 304 480 0
FLAG 304 432 0
FLAG 304 336 0
FLAG 304 240 0
FLAG 208 32 VDD
FLAG 112 96 VDD
FLAG 304 96 VDD
FLAG -128 368 EN
FLAG 560 144 Q_latch
FLAG -112 64 CLK
FLAG 464 176 0
FLAG 144 496 0
FLAG 448 112 VDD
FLAG 112 384 VDD
SYMBOL lib\\lib\\sym\\pmos4 256 144 M180
WINDOW 3 -11 146 Left 2
SYMATTR Value pch l=130n w=780n
SYMATTR InstName M1
SYMBOL lib\\lib\\sym\\pmos4 64 144 M180
WINDOW 3 -102 143 Left 2
SYMATTR Value pch l=130n w=780n
SYMATTR InstName M2
SYMBOL lib\\lib\\sym\\nmos4 256 192 R0
SYMATTR InstName M3
SYMATTR Value nch l=130n w=780n
SYMBOL lib\\lib\\sym\\nmos4 256 288 R0
SYMATTR InstName M4
SYMATTR Value nch l=130n w=780n
SYMBOL lib\\lib\\sym\\nmos4 256 384 R0
SYMATTR InstName M5
SYMATTR Value nch l=130n w=780n
SYMBOL lib\\lib\\sym\\voltage -128 -176 R0
SYMATTR InstName VDD1
SYMATTR Value 1.2
SYMBOL lib\\lib\\sym\\voltage 32 -176 R0
WINDOW 123 0 0 Left 0
WINDOW 39 0 0 Left 0
SYMATTR InstName CLK1
SYMATTR Value PULSE(0 1.2 0 10p 10p 3n 6n)
SYMBOL lib\\lib\\sym\\voltage 448 -176 R0
WINDOW 123 0 0 Left 0
WINDOW 39 0 0 Left 0
SYMATTR InstName EN
SYMATTR Value PULSE(0 1.2 0.1n 10p 10p 10n 20n)
SYMBOL SLOW_INV 112 464 R0
SYMATTR InstName X1
SYMBOL INVERTER 416 144 R0
SYMATTR InstName X2
TEXT 560 -144 Left 2 !.lib 130nm_bulk.lib
TEXT 560 -184 Left 2 !.tran 100n
