Version 4.1
SHEET 1 3992 680
WIRE 1776 -464 1728 -464
WIRE 2288 -464 1920 -464
WIRE 688 -400 688 -416
WIRE 688 -384 688 -400
WIRE 1152 -288 1136 -288
WIRE 1584 -288 1568 -288
WIRE 688 -272 688 -304
WIRE 896 -256 800 -256
WIRE 1120 -256 1040 -256
WIRE 1280 -256 1248 -256
WIRE 1328 -256 1280 -256
WIRE 1504 -256 1472 -256
WIRE 1552 -256 1504 -256
WIRE 1728 -256 1728 -464
WIRE 1728 -256 1680 -256
WIRE 1776 -256 1728 -256
WIRE 1952 -256 1920 -256
WIRE 2000 -256 1952 -256
WIRE 2288 -256 2144 -256
WIRE 1152 -224 1136 -224
WIRE 1584 -224 1568 -224
WIRE 960 -208 944 -208
WIRE 1392 -208 1376 -208
WIRE 1840 -208 1824 -208
WIRE 2064 -192 2064 -208
WIRE 1408 -128 1408 -144
WIRE 688 -112 688 -128
WIRE 1840 -112 1840 -128
WIRE 1280 -80 1280 -256
WIRE 1328 -80 1280 -80
WIRE 1504 -80 1504 -256
WIRE 1504 -80 1456 -80
WIRE 1728 -64 1728 -256
WIRE 1760 -64 1728 -64
WIRE 1952 -64 1952 -256
WIRE 1952 -64 1888 -64
WIRE 688 -16 688 -32
WIRE 1920 -16 1840 -16
WIRE 1408 0 1408 -32
FLAG 688 -16 0
FLAG 688 -128 D
FLAG 688 -272 0
FLAG 688 -400 VDD
FLAG 944 -208 0
FLAG 1136 -224 0
FLAG 1568 -288 0
FLAG 1376 -208 0
FLAG 1408 -144 0
FLAG 1824 -208 0
FLAG 2064 -192 0
FLAG 1920 -16 0
FLAG 960 -304 VDD
FLAG 1392 -304 VDD
FLAG 1568 -224 VDD
FLAG 1408 0 VDD
FLAG 1840 -128 VDD
FLAG 1840 -304 VDD
FLAG 1840 -512 VDD
FLAG 2064 -304 VDD
FLAG 1136 -288 VDD
FLAG 2288 -464 Qbar0
FLAG 2288 -256 Q0
FLAG 576 96 0
FLAG 576 256 0
FLAG 576 16 C
FLAG 576 176 Cbar
FLAG 1184 -320 C
FLAG 1616 -320 C
FLAG 1392 -128 C
FLAG 1824 -112 C
FLAG 1184 -192 Cbar
FLAG 1616 -192 Cbar
FLAG 1392 -32 Cbar
FLAG 1824 -16 Cbar
FLAG 800 -256 D
FLAG 1840 -416 0
SYMBOL voltage 688 -400 R0
WINDOW 123 0 0 Left 2
WINDOW 39 0 0 Left 2
SYMATTR InstName VDD
SYMATTR Value 1.2
SYMBOL Inverter1 1840 -464 R0
SYMATTR InstName X1
SYMBOL Inverter1 1840 -256 R0
SYMATTR InstName X2
SYMBOL Inverter1 2064 -256 R0
SYMATTR InstName X3
SYMBOL Inverter1 1392 -256 R0
SYMATTR InstName X4
SYMBOL Inverter1 960 -256 R0
SYMATTR InstName X5
SYMBOL TG 1184 -256 R0
SYMATTR InstName X6
SYMBOL TG 1616 -256 M180
SYMATTR InstName X7
SYMBOL Inverter3state 1824 -64 M0
SYMATTR InstName X8
SYMBOL Inverter3state 1392 -80 R180
SYMATTR InstName X9
SYMBOL voltage 576 160 R0
WINDOW 123 0 0 Left 0
WINDOW 39 0 0 Left 0
SYMATTR InstName V1
SYMATTR Value PULSE(0 1.2 0.1n 1p 1p 50p 100p )
SYMBOL voltage 576 0 R0
WINDOW 123 0 0 Left 0
WINDOW 39 0 0 Left 0
SYMATTR InstName V2
SYMATTR Value PULSE(1.2 0 0.1n 1p 1p 50p 100p )
SYMBOL voltage 688 -128 R0
WINDOW 123 0 0 Left 0
WINDOW 39 0 0 Left 0
SYMATTR InstName V3
SYMATTR Value PULSE(0 1.2 50p 1p 1p 3n 6n)
TEXT 1000 280 Left 2 !.lib 130nm_bulk.lib
TEXT 1000 304 Left 2 !.tran 100n
TEXT 984 344 Left 2 !.meas TRAN tpd_clk_to_qHL TRIG V(c)=0.6 RISE=31 TARG V(q0)=0.6 FALL=1
TEXT 984 368 Left 2 !.meas TRAN tpd_clk_to_qLH TRIG V(c)=0.6 RISE=1 TARG V(q0)=0.6 RISE=1
TEXT 984 392 Left 2 !.meas TRAN tpd_clk_to_qbarHL TRIG V(c)=0.6 RISE=1 TARG V(qbar0)=0.6 FALL=1
TEXT 984 416 Left 2 !.meas TRAN tpd_clk_to_qbarLH TRIG V(c)=0.6 RISE=31 TARG V(qbar0)=0.6 RISE=1
