Version 4.1
SHEET 1 4108 756
WIRE 2272 -960 2272 -976
WIRE 2272 -944 2272 -960
WIRE 2688 -944 2688 -960
WIRE 2688 -848 2688 -864
WIRE 2272 -832 2272 -864
WIRE 2512 -832 2512 -880
WIRE 2032 -816 2032 -848
WIRE 2032 -768 2032 -816
WIRE 2512 -768 2512 -832
WIRE 2032 -672 2032 -688
WIRE 2512 -672 2512 -688
WIRE 2144 -496 2144 -544
WIRE 1488 -480 1488 -512
WIRE 1920 -480 1920 -496
WIRE 1936 -480 1920 -480
WIRE 2880 -480 2848 -480
WIRE 2880 -464 2880 -480
WIRE 1376 -448 1344 -448
WIRE 2528 -448 2528 -464
WIRE 1376 -432 1376 -448
WIRE 1856 -432 1856 -448
WIRE 1872 -432 1856 -432
WIRE 2784 -432 2704 -432
WIRE 2816 -432 2784 -432
WIRE 2848 -432 2816 -432
WIRE 2960 -432 2928 -432
WIRE 3040 -432 2960 -432
WIRE 2080 -416 2016 -416
WIRE 2128 -416 2128 -448
WIRE 2128 -416 2080 -416
WIRE 2224 -416 2224 -448
WIRE 2464 -416 2224 -416
WIRE 2528 -416 2464 -416
WIRE 1184 -400 1168 -400
WIRE 1312 -400 1184 -400
WIRE 1344 -400 1312 -400
WIRE 1456 -400 1424 -400
WIRE 1472 -400 1472 -432
WIRE 1472 -400 1456 -400
WIRE 1568 -400 1568 -432
WIRE 1760 -400 1568 -400
WIRE 1872 -400 1760 -400
WIRE 2128 -384 2128 -416
WIRE 2224 -384 2224 -416
WIRE 2880 -384 2880 -400
WIRE 2880 -384 2832 -384
WIRE 1472 -368 1472 -400
WIRE 1568 -368 1568 -400
WIRE 1376 -352 1376 -368
WIRE 1376 -352 1328 -352
WIRE 1936 -352 1904 -352
WIRE 1488 -272 1488 -320
WIRE 2144 -272 2144 -336
WIRE 1936 -208 1936 -224
WIRE 1952 -208 1952 -224
WIRE 2656 -208 2656 -224
WIRE 2672 -208 2672 -224
WIRE 2080 -160 2080 -416
WIRE 2080 -160 2000 -160
WIRE 2784 -160 2784 -432
WIRE 2784 -160 2720 -160
WIRE 1760 -144 1760 -400
WIRE 1824 -144 1760 -144
WIRE 2464 -144 2464 -416
WIRE 2592 -144 2464 -144
WIRE 2048 -128 2000 -128
WIRE 2720 -112 2720 -128
WIRE 1968 -80 1952 -80
WIRE 2656 -80 2640 -80
WIRE 1936 -64 1936 -80
WIRE 2672 -64 2672 -80
FLAG 2272 -832 0
FLAG 2272 -960 VDD
FLAG 1344 -448 VDD
FLAG 1920 -496 VDD
FLAG 1952 -224 VDD
FLAG 2592 -496 VDD
FLAG 2656 -224 VDD
FLAG 2848 -480 VDD
FLAG 1328 -352 0
FLAG 1904 -352 0
FLAG 1968 -80 0
FLAG 2592 -368 0
FLAG 2640 -80 0
FLAG 2832 -384 0
FLAG 1488 -848 0
FLAG 1488 -688 0
FLAG 1488 -928 CLK
FLAG 1488 -768 CLK~
FLAG 1936 -224 CLK
FLAG 2672 -224 CLK
FLAG 1936 -64 Cbar
FLAG 2672 -64 CLK~
FLAG 2688 -848 0
FLAG 2688 -960 D
FLAG 1184 -400 D
FLAG 3040 -432 Q
FLAG 2512 -672 0
FLAG 2032 -672 0
FLAG 2512 -832 SET~
FLAG 1856 -448 SET~
FLAG 2720 -112 SET~
FLAG 2032 -816 RESET~
FLAG 2048 -128 RESET~
FLAG 2528 -464 RESET~
FLAG 1520 -432 V+
FLAG 1488 -272 CLK~
FLAG 1488 -512 CLK
FLAG 1520 -368 V-
FLAG 2176 -384 V+
FLAG 2144 -272 CLK~
FLAG 2144 -544 CLK
FLAG 2176 -448 V-
SYMBOL voltage 2272 -960 R0
WINDOW 123 0 0 Left 2
WINDOW 39 0 0 Left 2
SYMATTR InstName VDD
SYMATTR Value 1.2
SYMBOL Or23state 2672 -144 M0
SYMATTR InstName X5
SYMBOL Nand2 2592 -432 R0
SYMATTR InstName X6
SYMBOL Nand23state 1936 -144 M0
WINDOW 0 11 10 Bottom 2
SYMATTR InstName X8
SYMBOL voltage 1488 -784 R0
WINDOW 123 0 0 Left 0
WINDOW 39 0 0 Left 0
SYMATTR InstName V1
SYMATTR Value PULSE(0 1.2 0.1n 1p 1p 1n 2n )
SYMBOL voltage 1488 -944 R0
WINDOW 123 0 0 Left 0
WINDOW 39 0 0 Left 0
SYMATTR InstName V2
SYMATTR Value PULSE(1.2 0 0.1n 1p 1p 1n 2n )
SYMBOL voltage 2688 -960 R0
WINDOW 123 0 0 Left 0
WINDOW 39 0 0 Left 0
SYMATTR InstName V3
SYMATTR Value PULSE(0 1.2 500p 1p 1p 3n 6n)
SYMBOL voltage 2512 -784 R0
WINDOW 123 0 0 Left 0
WINDOW 39 0 0 Left 0
SYMATTR InstName V4
SYMATTR Value PULSE(1.2 1.2 12n 1p 1p 1n 50n)
SYMBOL voltage 2032 -784 R0
WINDOW 123 0 0 Left 0
WINDOW 39 0 0 Left 0
SYMATTR InstName V5
SYMATTR Value PULSE(1.2 1.2 18n 1p 1p 1n 20n)
SYMBOL Or2 1920 -416 R0
SYMATTR InstName X3
SYMBOL lib\\lib\\sym\\pmos4 1568 -480 R90
WINDOW 0 120 -30 VRight 2
WINDOW 3 -15 -178 VRight 2
SYMATTR InstName M1
SYMATTR Value pch l=130n w=780n
SYMBOL lib\\lib\\sym\\nmos4 1568 -320 M270
WINDOW 0 133 9 VLeft 2
WINDOW 3 -9 64 VLeft 2
SYMATTR InstName M2
SYMATTR Value nch l=130n w=260n
SYMBOL lib\\lib\\sym\\pmos4 2224 -336 M270
WINDOW 0 120 -30 VRight 2
WINDOW 3 -15 -178 VRight 2
SYMATTR InstName M3
SYMATTR Value pch l=130n w=780n
SYMBOL lib\\lib\\sym\\nmos4 2224 -496 R90
WINDOW 0 133 9 VLeft 2
WINDOW 3 -9 64 VLeft 2
SYMATTR InstName M4
SYMATTR Value nch l=130n w=260n
SYMBOL Inverter1 1376 -400 R0
SYMATTR InstName X1
SYMBOL Inverter1 2880 -432 R0
SYMATTR InstName X2
TEXT 1192 -624 Left 2 !.lib 130nm_bulk.lib
TEXT 1200 -592 Left 2 !.tran 50n
